matpower/matpower-converter/src/test/resources/case118.xiidm
<?xml version="1.0" encoding="UTF-8"?>
<iidm:network xmlns:iidm="http://www.itesla_project.eu/schema/iidm/1_0" id="case118" caseDate="2020-01-01T00:00:00.000Z" forecastDistance="0" sourceFormat="MATPOWER">
    <iidm:substation id="S13">
        <iidm:voltageLevel id="VL1" nominalV="138.0" topologyKind="BUS_BREAKER">
            <iidm:busBreakerTopology>
                <iidm:bus id="B1" v="131.79" angle="10.67"/>
            </iidm:busBreakerTopology>
            <iidm:generator id="G1-0" energySource="OTHER" minP="0.0" maxP="100.0" voltageRegulatorOn="true" targetP="0.0" targetV="0.955" targetQ="0.0" bus="B1" connectableBus="B1">
                <iidm:minMaxReactiveLimits minQ="-5.0" maxQ="15.0"/>
            </iidm:generator>
            <iidm:load id="LB1" loadType="UNDEFINED" p0="51.0" q0="27.0" bus="B1" connectableBus="B1"/>
        </iidm:voltageLevel>
    </iidm:substation>
    <iidm:substation id="S18">
        <iidm:voltageLevel id="VL2" nominalV="138.0" topologyKind="BUS_BREAKER">
            <iidm:busBreakerTopology>
                <iidm:bus id="B2" v="133.998" angle="11.22"/>
            </iidm:busBreakerTopology>
            <iidm:load id="LB2" loadType="UNDEFINED" p0="20.0" q0="9.0" bus="B2" connectableBus="B2"/>
        </iidm:voltageLevel>
    </iidm:substation>
    <iidm:substation id="S16">
        <iidm:voltageLevel id="VL3" nominalV="138.0" topologyKind="BUS_BREAKER">
            <iidm:busBreakerTopology>
                <iidm:bus id="B3" v="133.584" angle="11.56"/>
            </iidm:busBreakerTopology>
            <iidm:load id="LB3" loadType="UNDEFINED" p0="39.0" q0="10.0" bus="B3" connectableBus="B3"/>
        </iidm:voltageLevel>
    </iidm:substation>
    <iidm:substation id="S22">
        <iidm:voltageLevel id="VL4" nominalV="138.0" topologyKind="BUS_BREAKER">
            <iidm:busBreakerTopology>
                <iidm:bus id="B4" v="137.724" angle="15.28"/>
            </iidm:busBreakerTopology>
            <iidm:generator id="G4-0" energySource="OTHER" minP="0.0" maxP="100.0" voltageRegulatorOn="true" targetP="0.0" targetV="0.998" targetQ="0.0" bus="B4" connectableBus="B4">
                <iidm:minMaxReactiveLimits minQ="-300.0" maxQ="300.0"/>
            </iidm:generator>
            <iidm:load id="LB4" loadType="UNDEFINED" p0="39.0" q0="12.0" bus="B4" connectableBus="B4"/>
        </iidm:voltageLevel>
    </iidm:substation>
    <iidm:substation id="S20">
        <iidm:voltageLevel id="VL5" nominalV="138.0" topologyKind="BUS_BREAKER">
            <iidm:busBreakerTopology>
                <iidm:bus id="B5" v="138.276" angle="15.73"/>
            </iidm:busBreakerTopology>
            <iidm:shunt id="B5SHB5" bPerSection="-40.0" maximumSectionCount="1" currentSectionCount="1" bus="B5" connectableBus="B5"/>
        </iidm:voltageLevel>
        <iidm:voltageLevel id="VL8" nominalV="345.0" topologyKind="BUS_BREAKER">
            <iidm:busBreakerTopology>
                <iidm:bus id="B8" v="350.17499999999995" angle="20.77"/>
            </iidm:busBreakerTopology>
            <iidm:generator id="G8-0" energySource="OTHER" minP="0.0" maxP="100.0" voltageRegulatorOn="true" targetP="0.0" targetV="1.015" targetQ="0.0" bus="B8" connectableBus="B8">
                <iidm:minMaxReactiveLimits minQ="-300.0" maxQ="300.0"/>
            </iidm:generator>
            <iidm:load id="LB8" loadType="UNDEFINED" p0="28.0" q0="0.0" bus="B8" connectableBus="B8"/>
        </iidm:voltageLevel>
        <iidm:twoWindingsTransformer id="T8-5-0" r="0.0" x="508.4748" g="0.0" b="0.0" ratedU1="339.825" ratedU2="138.0" bus1="B8" connectableBus1="B8" voltageLevelId1="VL8" bus2="B5" connectableBus2="B5" voltageLevelId2="VL5"/>
    </iidm:substation>
    <iidm:substation id="S26">
        <iidm:voltageLevel id="VL6" nominalV="138.0" topologyKind="BUS_BREAKER">
            <iidm:busBreakerTopology>
                <iidm:bus id="B6" v="136.62" angle="13.0"/>
            </iidm:busBreakerTopology>
            <iidm:generator id="G6-0" energySource="OTHER" minP="0.0" maxP="100.0" voltageRegulatorOn="true" targetP="0.0" targetV="0.99" targetQ="0.0" bus="B6" connectableBus="B6">
                <iidm:minMaxReactiveLimits minQ="-13.0" maxQ="50.0"/>
            </iidm:generator>
            <iidm:load id="LB6" loadType="UNDEFINED" p0="52.0" q0="22.0" bus="B6" connectableBus="B6"/>
        </iidm:voltageLevel>
    </iidm:substation>
    <iidm:substation id="S24">
        <iidm:voltageLevel id="VL7" nominalV="138.0" topologyKind="BUS_BREAKER">
            <iidm:busBreakerTopology>
                <iidm:bus id="B7" v="136.482" angle="12.56"/>
            </iidm:busBreakerTopology>
            <iidm:load id="LB7" loadType="UNDEFINED" p0="19.0" q0="2.0" bus="B7" connectableBus="B7"/>
        </iidm:voltageLevel>
    </iidm:substation>
    <iidm:substation id="S28">
        <iidm:voltageLevel id="VL9" nominalV="345.0" topologyKind="BUS_BREAKER">
            <iidm:busBreakerTopology>
                <iidm:bus id="B9" v="359.835" angle="28.02"/>
            </iidm:busBreakerTopology>
        </iidm:voltageLevel>
    </iidm:substation>
    <iidm:substation id="S62">
        <iidm:voltageLevel id="VL10" nominalV="345.0" topologyKind="BUS_BREAKER">
            <iidm:busBreakerTopology>
                <iidm:bus id="B10" v="362.25" angle="35.61"/>
            </iidm:busBreakerTopology>
            <iidm:generator id="G10-0" energySource="OTHER" minP="0.0" maxP="550.0" voltageRegulatorOn="true" targetP="450.0" targetV="1.05" targetQ="0.0" bus="B10" connectableBus="B10">
                <iidm:minMaxReactiveLimits minQ="-147.0" maxQ="200.0"/>
            </iidm:generator>
        </iidm:voltageLevel>
    </iidm:substation>
    <iidm:substation id="S65">
        <iidm:voltageLevel id="VL11" nominalV="138.0" topologyKind="BUS_BREAKER">
            <iidm:busBreakerTopology>
                <iidm:bus id="B11" v="135.93" angle="12.72"/>
            </iidm:busBreakerTopology>
            <iidm:load id="LB11" loadType="UNDEFINED" p0="70.0" q0="23.0" bus="B11" connectableBus="B11"/>
        </iidm:voltageLevel>
    </iidm:substation>
    <iidm:substation id="S68">
        <iidm:voltageLevel id="VL12" nominalV="138.0" topologyKind="BUS_BREAKER">
            <iidm:busBreakerTopology>
                <iidm:bus id="B12" v="136.62" angle="12.2"/>
            </iidm:busBreakerTopology>
            <iidm:generator id="G12-0" energySource="OTHER" minP="0.0" maxP="185.0" voltageRegulatorOn="true" targetP="85.0" targetV="0.99" targetQ="0.0" bus="B12" connectableBus="B12">
                <iidm:minMaxReactiveLimits minQ="-35.0" maxQ="120.0"/>
            </iidm:generator>
            <iidm:load id="LB12" loadType="UNDEFINED" p0="47.0" q0="10.0" bus="B12" connectableBus="B12"/>
        </iidm:voltageLevel>
    </iidm:substation>
    <iidm:substation id="S50">
        <iidm:voltageLevel id="VL13" nominalV="138.0" topologyKind="BUS_BREAKER">
            <iidm:busBreakerTopology>
                <iidm:bus id="B13" v="133.584" angle="11.35"/>
            </iidm:busBreakerTopology>
            <iidm:load id="LB13" loadType="UNDEFINED" p0="34.0" q0="16.0" bus="B13" connectableBus="B13"/>
        </iidm:voltageLevel>
    </iidm:substation>
    <iidm:substation id="S51">
        <iidm:voltageLevel id="VL14" nominalV="138.0" topologyKind="BUS_BREAKER">
            <iidm:busBreakerTopology>
                <iidm:bus id="B14" v="135.792" angle="11.5"/>
            </iidm:busBreakerTopology>
            <iidm:load id="LB14" loadType="UNDEFINED" p0="14.0" q0="1.0" bus="B14" connectableBus="B14"/>
        </iidm:voltageLevel>
    </iidm:substation>
    <iidm:substation id="S52">
        <iidm:voltageLevel id="VL15" nominalV="138.0" topologyKind="BUS_BREAKER">
            <iidm:busBreakerTopology>
                <iidm:bus id="B15" v="133.85999999999999" angle="11.23"/>
            </iidm:busBreakerTopology>
            <iidm:generator id="G15-0" energySource="OTHER" minP="0.0" maxP="100.0" voltageRegulatorOn="true" targetP="0.0" targetV="0.97" targetQ="0.0" bus="B15" connectableBus="B15">
                <iidm:minMaxReactiveLimits minQ="-10.0" maxQ="30.0"/>
            </iidm:generator>
            <iidm:load id="LB15" loadType="UNDEFINED" p0="90.0" q0="30.0" bus="B15" connectableBus="B15"/>
        </iidm:voltageLevel>
    </iidm:substation>
    <iidm:substation id="S53">
        <iidm:voltageLevel id="VL16" nominalV="138.0" topologyKind="BUS_BREAKER">
            <iidm:busBreakerTopology>
                <iidm:bus id="B16" v="135.792" angle="11.91"/>
            </iidm:busBreakerTopology>
            <iidm:load id="LB16" loadType="UNDEFINED" p0="25.0" q0="10.0" bus="B16" connectableBus="B16"/>
        </iidm:voltageLevel>
    </iidm:substation>
    <iidm:substation id="S54">
        <iidm:voltageLevel id="VL17" nominalV="138.0" topologyKind="BUS_BREAKER">
            <iidm:busBreakerTopology>
                <iidm:bus id="B17" v="137.31" angle="13.74"/>
            </iidm:busBreakerTopology>
            <iidm:load id="LB17" loadType="UNDEFINED" p0="11.0" q0="3.0" bus="B17" connectableBus="B17"/>
        </iidm:voltageLevel>
        <iidm:voltageLevel id="VL30" nominalV="345.0" topologyKind="BUS_BREAKER">
            <iidm:busBreakerTopology>
                <iidm:bus id="B30" v="333.96" angle="18.79"/>
            </iidm:busBreakerTopology>
        </iidm:voltageLevel>
        <iidm:twoWindingsTransformer id="T30-17-0" r="0.0" x="738.9072" g="0.0" b="0.0" ratedU1="331.2" ratedU2="138.0" bus1="B30" connectableBus1="B30" voltageLevelId1="VL30" bus2="B17" connectableBus2="B17" voltageLevelId2="VL17"/>
    </iidm:substation>
    <iidm:substation id="S55">
        <iidm:voltageLevel id="VL18" nominalV="138.0" topologyKind="BUS_BREAKER">
            <iidm:busBreakerTopology>
                <iidm:bus id="B18" v="134.274" angle="11.53"/>
            </iidm:busBreakerTopology>
            <iidm:generator id="G18-0" energySource="OTHER" minP="0.0" maxP="100.0" voltageRegulatorOn="true" targetP="0.0" targetV="0.973" targetQ="0.0" bus="B18" connectableBus="B18">
                <iidm:minMaxReactiveLimits minQ="-16.0" maxQ="50.0"/>
            </iidm:generator>
            <iidm:load id="LB18" loadType="UNDEFINED" p0="60.0" q0="34.0" bus="B18" connectableBus="B18"/>
        </iidm:voltageLevel>
    </iidm:substation>
    <iidm:substation id="S56">
        <iidm:voltageLevel id="VL19" nominalV="138.0" topologyKind="BUS_BREAKER">
            <iidm:busBreakerTopology>
                <iidm:bus id="B19" v="132.894" angle="11.05"/>
            </iidm:busBreakerTopology>
            <iidm:generator id="G19-0" energySource="OTHER" minP="0.0" maxP="100.0" voltageRegulatorOn="true" targetP="0.0" targetV="0.962" targetQ="0.0" bus="B19" connectableBus="B19">
                <iidm:minMaxReactiveLimits minQ="-8.0" maxQ="24.0"/>
            </iidm:generator>
            <iidm:load id="LB19" loadType="UNDEFINED" p0="45.0" q0="25.0" bus="B19" connectableBus="B19"/>
        </iidm:voltageLevel>
    </iidm:substation>
    <iidm:substation id="S39">
        <iidm:voltageLevel id="VL20" nominalV="138.0" topologyKind="BUS_BREAKER">
            <iidm:busBreakerTopology>
                <iidm:bus id="B20" v="132.204" angle="11.93"/>
            </iidm:busBreakerTopology>
            <iidm:load id="LB20" loadType="UNDEFINED" p0="18.0" q0="3.0" bus="B20" connectableBus="B20"/>
        </iidm:voltageLevel>
    </iidm:substation>
    <iidm:substation id="S41">
        <iidm:voltageLevel id="VL21" nominalV="138.0" topologyKind="BUS_BREAKER">
            <iidm:busBreakerTopology>
                <iidm:bus id="B21" v="132.34199999999998" angle="13.52"/>
            </iidm:busBreakerTopology>
            <iidm:load id="LB21" loadType="UNDEFINED" p0="14.0" q0="8.0" bus="B21" connectableBus="B21"/>
        </iidm:voltageLevel>
    </iidm:substation>
    <iidm:substation id="S43">
        <iidm:voltageLevel id="VL22" nominalV="138.0" topologyKind="BUS_BREAKER">
            <iidm:busBreakerTopology>
                <iidm:bus id="B22" v="133.85999999999999" angle="16.08"/>
            </iidm:busBreakerTopology>
            <iidm:load id="LB22" loadType="UNDEFINED" p0="10.0" q0="5.0" bus="B22" connectableBus="B22"/>
        </iidm:voltageLevel>
    </iidm:substation>
    <iidm:substation id="S45">
        <iidm:voltageLevel id="VL23" nominalV="138.0" topologyKind="BUS_BREAKER">
            <iidm:busBreakerTopology>
                <iidm:bus id="B23" v="138.0" angle="21.0"/>
            </iidm:busBreakerTopology>
            <iidm:load id="LB23" loadType="UNDEFINED" p0="7.0" q0="3.0" bus="B23" connectableBus="B23"/>
        </iidm:voltageLevel>
    </iidm:substation>
    <iidm:substation id="S33">
        <iidm:voltageLevel id="VL24" nominalV="138.0" topologyKind="BUS_BREAKER">
            <iidm:busBreakerTopology>
                <iidm:bus id="B24" v="136.896" angle="20.89"/>
            </iidm:busBreakerTopology>
            <iidm:generator id="G24-0" energySource="OTHER" minP="0.0" maxP="100.0" voltageRegulatorOn="true" targetP="0.0" targetV="0.992" targetQ="0.0" bus="B24" connectableBus="B24">
                <iidm:minMaxReactiveLimits minQ="-300.0" maxQ="300.0"/>
            </iidm:generator>
            <iidm:load id="LB24" loadType="UNDEFINED" p0="13.0" q0="0.0" bus="B24" connectableBus="B24"/>
        </iidm:voltageLevel>
    </iidm:substation>
    <iidm:substation id="S34">
        <iidm:voltageLevel id="VL25" nominalV="138.0" topologyKind="BUS_BREAKER">
            <iidm:busBreakerTopology>
                <iidm:bus id="B25" v="144.9" angle="27.93"/>
            </iidm:busBreakerTopology>
            <iidm:generator id="G25-0" energySource="OTHER" minP="0.0" maxP="320.0" voltageRegulatorOn="true" targetP="220.0" targetV="1.05" targetQ="0.0" bus="B25" connectableBus="B25">
                <iidm:minMaxReactiveLimits minQ="-47.0" maxQ="140.0"/>
            </iidm:generator>
        </iidm:voltageLevel>
        <iidm:voltageLevel id="VL26" nominalV="345.0" topologyKind="BUS_BREAKER">
            <iidm:busBreakerTopology>
                <iidm:bus id="B26" v="350.17499999999995" angle="29.71"/>
            </iidm:busBreakerTopology>
            <iidm:generator id="G26-0" energySource="OTHER" minP="0.0" maxP="414.0" voltageRegulatorOn="true" targetP="314.0" targetV="1.015" targetQ="0.0" bus="B26" connectableBus="B26">
                <iidm:minMaxReactiveLimits minQ="-1000.0" maxQ="1000.0"/>
            </iidm:generator>
        </iidm:voltageLevel>
        <iidm:twoWindingsTransformer id="T26-25-0" r="0.0" x="727.4807999999999" g="0.0" b="0.0" ratedU1="331.2" ratedU2="138.0" bus1="B26" connectableBus1="B26" voltageLevelId1="VL26" bus2="B25" connectableBus2="B25" voltageLevelId2="VL25"/>
    </iidm:substation>
    <iidm:substation id="S35">
        <iidm:voltageLevel id="VL27" nominalV="138.0" topologyKind="BUS_BREAKER">
            <iidm:busBreakerTopology>
                <iidm:bus id="B27" v="133.584" angle="15.35"/>
            </iidm:busBreakerTopology>
            <iidm:generator id="G27-0" energySource="OTHER" minP="0.0" maxP="100.0" voltageRegulatorOn="true" targetP="0.0" targetV="0.968" targetQ="0.0" bus="B27" connectableBus="B27">
                <iidm:minMaxReactiveLimits minQ="-300.0" maxQ="300.0"/>
            </iidm:generator>
            <iidm:load id="LB27" loadType="UNDEFINED" p0="71.0" q0="13.0" bus="B27" connectableBus="B27"/>
        </iidm:voltageLevel>
    </iidm:substation>
    <iidm:substation id="S36">
        <iidm:voltageLevel id="VL28" nominalV="138.0" topologyKind="BUS_BREAKER">
            <iidm:busBreakerTopology>
                <iidm:bus id="B28" v="132.756" angle="13.62"/>
            </iidm:busBreakerTopology>
            <iidm:load id="LB28" loadType="UNDEFINED" p0="17.0" q0="7.0" bus="B28" connectableBus="B28"/>
        </iidm:voltageLevel>
    </iidm:substation>
    <iidm:substation id="S37">
        <iidm:voltageLevel id="VL29" nominalV="138.0" topologyKind="BUS_BREAKER">
            <iidm:busBreakerTopology>
                <iidm:bus id="B29" v="132.894" angle="12.63"/>
            </iidm:busBreakerTopology>
            <iidm:load id="LB29" loadType="UNDEFINED" p0="24.0" q0="4.0" bus="B29" connectableBus="B29"/>
        </iidm:voltageLevel>
    </iidm:substation>
    <iidm:substation id="S89">
        <iidm:voltageLevel id="VL31" nominalV="138.0" topologyKind="BUS_BREAKER">
            <iidm:busBreakerTopology>
                <iidm:bus id="B31" v="133.446" angle="12.75"/>
            </iidm:busBreakerTopology>
            <iidm:generator id="G31-0" energySource="OTHER" minP="0.0" maxP="107.0" voltageRegulatorOn="true" targetP="7.0" targetV="0.967" targetQ="0.0" bus="B31" connectableBus="B31">
                <iidm:minMaxReactiveLimits minQ="-300.0" maxQ="300.0"/>
            </iidm:generator>
            <iidm:load id="LB31" loadType="UNDEFINED" p0="43.0" q0="27.0" bus="B31" connectableBus="B31"/>
        </iidm:voltageLevel>
    </iidm:substation>
    <iidm:substation id="S90">
        <iidm:voltageLevel id="VL32" nominalV="138.0" topologyKind="BUS_BREAKER">
            <iidm:busBreakerTopology>
                <iidm:bus id="B32" v="133.03199999999998" angle="14.8"/>
            </iidm:busBreakerTopology>
            <iidm:generator id="G32-0" energySource="OTHER" minP="0.0" maxP="100.0" voltageRegulatorOn="true" targetP="0.0" targetV="0.963" targetQ="0.0" bus="B32" connectableBus="B32">
                <iidm:minMaxReactiveLimits minQ="-14.0" maxQ="42.0"/>
            </iidm:generator>
            <iidm:load id="LB32" loadType="UNDEFINED" p0="59.0" q0="23.0" bus="B32" connectableBus="B32"/>
        </iidm:voltageLevel>
    </iidm:substation>
    <iidm:substation id="S91">
        <iidm:voltageLevel id="VL33" nominalV="138.0" topologyKind="BUS_BREAKER">
            <iidm:busBreakerTopology>
                <iidm:bus id="B33" v="134.136" angle="10.63"/>
            </iidm:busBreakerTopology>
            <iidm:load id="LB33" loadType="UNDEFINED" p0="23.0" q0="9.0" bus="B33" connectableBus="B33"/>
        </iidm:voltageLevel>
    </iidm:substation>
    <iidm:substation id="S92">
        <iidm:voltageLevel id="VL34" nominalV="138.0" topologyKind="BUS_BREAKER">
            <iidm:busBreakerTopology>
                <iidm:bus id="B34" v="136.068" angle="11.3"/>
            </iidm:busBreakerTopology>
            <iidm:generator id="G34-0" energySource="OTHER" minP="0.0" maxP="100.0" voltageRegulatorOn="true" targetP="0.0" targetV="0.984" targetQ="0.0" bus="B34" connectableBus="B34">
                <iidm:minMaxReactiveLimits minQ="-8.0" maxQ="24.0"/>
            </iidm:generator>
            <iidm:load id="LB34" loadType="UNDEFINED" p0="59.0" q0="26.0" bus="B34" connectableBus="B34"/>
            <iidm:shunt id="B34SHB34" bPerSection="14.0" maximumSectionCount="1" currentSectionCount="1" bus="B34" connectableBus="B34"/>
        </iidm:voltageLevel>
    </iidm:substation>
    <iidm:substation id="S85">
        <iidm:voltageLevel id="VL35" nominalV="138.0" topologyKind="BUS_BREAKER">
            <iidm:busBreakerTopology>
                <iidm:bus id="B35" v="135.378" angle="10.87"/>
            </iidm:busBreakerTopology>
            <iidm:load id="LB35" loadType="UNDEFINED" p0="33.0" q0="9.0" bus="B35" connectableBus="B35"/>
        </iidm:voltageLevel>
    </iidm:substation>
    <iidm:substation id="S86">
        <iidm:voltageLevel id="VL36" nominalV="138.0" topologyKind="BUS_BREAKER">
            <iidm:busBreakerTopology>
                <iidm:bus id="B36" v="135.24" angle="10.87"/>
            </iidm:busBreakerTopology>
            <iidm:generator id="G36-0" energySource="OTHER" minP="0.0" maxP="100.0" voltageRegulatorOn="true" targetP="0.0" targetV="0.98" targetQ="0.0" bus="B36" connectableBus="B36">
                <iidm:minMaxReactiveLimits minQ="-8.0" maxQ="24.0"/>
            </iidm:generator>
            <iidm:load id="LB36" loadType="UNDEFINED" p0="31.0" q0="17.0" bus="B36" connectableBus="B36"/>
        </iidm:voltageLevel>
    </iidm:substation>
    <iidm:substation id="S87">
        <iidm:voltageLevel id="VL37" nominalV="138.0" topologyKind="BUS_BREAKER">
            <iidm:busBreakerTopology>
                <iidm:bus id="B37" v="136.896" angle="11.77"/>
            </iidm:busBreakerTopology>
            <iidm:shunt id="B37SHB37" bPerSection="-25.0" maximumSectionCount="1" currentSectionCount="1" bus="B37" connectableBus="B37"/>
        </iidm:voltageLevel>
        <iidm:voltageLevel id="VL38" nominalV="345.0" topologyKind="BUS_BREAKER">
            <iidm:busBreakerTopology>
                <iidm:bus id="B38" v="331.89" angle="16.91"/>
            </iidm:busBreakerTopology>
        </iidm:voltageLevel>
        <iidm:twoWindingsTransformer id="T38-37-0" r="0.0" x="714.15" g="0.0" b="0.0" ratedU1="322.57500000000005" ratedU2="138.0" bus1="B38" connectableBus1="B38" voltageLevelId1="VL38" bus2="B37" connectableBus2="B37" voltageLevelId2="VL37"/>
    </iidm:substation>
    <iidm:substation id="S88">
        <iidm:voltageLevel id="VL39" nominalV="138.0" topologyKind="BUS_BREAKER">
            <iidm:busBreakerTopology>
                <iidm:bus id="B39" v="133.85999999999999" angle="8.41"/>
            </iidm:busBreakerTopology>
            <iidm:load id="LB39" loadType="UNDEFINED" p0="27.0" q0="11.0" bus="B39" connectableBus="B39"/>
        </iidm:voltageLevel>
    </iidm:substation>
    <iidm:substation id="S74">
        <iidm:voltageLevel id="VL40" nominalV="138.0" topologyKind="BUS_BREAKER">
            <iidm:busBreakerTopology>
                <iidm:bus id="B40" v="133.85999999999999" angle="7.35"/>
            </iidm:busBreakerTopology>
            <iidm:generator id="G40-0" energySource="OTHER" minP="0.0" maxP="100.0" voltageRegulatorOn="true" targetP="0.0" targetV="0.97" targetQ="0.0" bus="B40" connectableBus="B40">
                <iidm:minMaxReactiveLimits minQ="-300.0" maxQ="300.0"/>
            </iidm:generator>
            <iidm:load id="LB40" loadType="UNDEFINED" p0="66.0" q0="23.0" bus="B40" connectableBus="B40"/>
        </iidm:voltageLevel>
    </iidm:substation>
    <iidm:substation id="S75">
        <iidm:voltageLevel id="VL41" nominalV="138.0" topologyKind="BUS_BREAKER">
            <iidm:busBreakerTopology>
                <iidm:bus id="B41" v="133.446" angle="6.92"/>
            </iidm:busBreakerTopology>
            <iidm:load id="LB41" loadType="UNDEFINED" p0="37.0" q0="10.0" bus="B41" connectableBus="B41"/>
        </iidm:voltageLevel>
    </iidm:substation>
    <iidm:substation id="S76">
        <iidm:voltageLevel id="VL42" nominalV="138.0" topologyKind="BUS_BREAKER">
            <iidm:busBreakerTopology>
                <iidm:bus id="B42" v="135.93" angle="8.53"/>
            </iidm:busBreakerTopology>
            <iidm:generator id="G42-0" energySource="OTHER" minP="0.0" maxP="100.0" voltageRegulatorOn="true" targetP="0.0" targetV="0.985" targetQ="0.0" bus="B42" connectableBus="B42">
                <iidm:minMaxReactiveLimits minQ="-300.0" maxQ="300.0"/>
            </iidm:generator>
            <iidm:load id="LB42" loadType="UNDEFINED" p0="96.0" q0="23.0" bus="B42" connectableBus="B42"/>
        </iidm:voltageLevel>
    </iidm:substation>
    <iidm:substation id="S77">
        <iidm:voltageLevel id="VL43" nominalV="138.0" topologyKind="BUS_BREAKER">
            <iidm:busBreakerTopology>
                <iidm:bus id="B43" v="134.964" angle="11.28"/>
            </iidm:busBreakerTopology>
            <iidm:load id="LB43" loadType="UNDEFINED" p0="18.0" q0="7.0" bus="B43" connectableBus="B43"/>
        </iidm:voltageLevel>
    </iidm:substation>
    <iidm:substation id="S78">
        <iidm:voltageLevel id="VL44" nominalV="138.0" topologyKind="BUS_BREAKER">
            <iidm:busBreakerTopology>
                <iidm:bus id="B44" v="135.93" angle="13.82"/>
            </iidm:busBreakerTopology>
            <iidm:load id="LB44" loadType="UNDEFINED" p0="16.0" q0="8.0" bus="B44" connectableBus="B44"/>
            <iidm:shunt id="B44SHB44" bPerSection="10.0" maximumSectionCount="1" currentSectionCount="1" bus="B44" connectableBus="B44"/>
        </iidm:voltageLevel>
    </iidm:substation>
    <iidm:substation id="S79">
        <iidm:voltageLevel id="VL45" nominalV="138.0" topologyKind="BUS_BREAKER">
            <iidm:busBreakerTopology>
                <iidm:bus id="B45" v="136.206" angle="15.67"/>
            </iidm:busBreakerTopology>
            <iidm:load id="LB45" loadType="UNDEFINED" p0="53.0" q0="22.0" bus="B45" connectableBus="B45"/>
            <iidm:shunt id="B45SHB45" bPerSection="10.0" maximumSectionCount="1" currentSectionCount="1" bus="B45" connectableBus="B45"/>
        </iidm:voltageLevel>
    </iidm:substation>
    <iidm:substation id="S70">
        <iidm:voltageLevel id="VL46" nominalV="138.0" topologyKind="BUS_BREAKER">
            <iidm:busBreakerTopology>
                <iidm:bus id="B46" v="138.69" angle="18.49"/>
            </iidm:busBreakerTopology>
            <iidm:generator id="G46-0" energySource="OTHER" minP="0.0" maxP="119.0" voltageRegulatorOn="true" targetP="19.0" targetV="1.005" targetQ="0.0" bus="B46" connectableBus="B46">
                <iidm:minMaxReactiveLimits minQ="-100.0" maxQ="100.0"/>
            </iidm:generator>
            <iidm:load id="LB46" loadType="UNDEFINED" p0="28.0" q0="10.0" bus="B46" connectableBus="B46"/>
            <iidm:shunt id="B46SHB46" bPerSection="10.0" maximumSectionCount="1" currentSectionCount="1" bus="B46" connectableBus="B46"/>
        </iidm:voltageLevel>
    </iidm:substation>
    <iidm:substation id="S71">
        <iidm:voltageLevel id="VL47" nominalV="138.0" topologyKind="BUS_BREAKER">
            <iidm:busBreakerTopology>
                <iidm:bus id="B47" v="140.34599999999998" angle="20.73"/>
            </iidm:busBreakerTopology>
            <iidm:load id="LB47" loadType="UNDEFINED" p0="34.0" q0="0.0" bus="B47" connectableBus="B47"/>
        </iidm:voltageLevel>
    </iidm:substation>
    <iidm:substation id="S72">
        <iidm:voltageLevel id="VL48" nominalV="138.0" topologyKind="BUS_BREAKER">
            <iidm:busBreakerTopology>
                <iidm:bus id="B48" v="140.898" angle="19.93"/>
            </iidm:busBreakerTopology>
            <iidm:load id="LB48" loadType="UNDEFINED" p0="20.0" q0="11.0" bus="B48" connectableBus="B48"/>
            <iidm:shunt id="B48SHB48" bPerSection="15.0" maximumSectionCount="1" currentSectionCount="1" bus="B48" connectableBus="B48"/>
        </iidm:voltageLevel>
    </iidm:substation>
    <iidm:substation id="S73">
        <iidm:voltageLevel id="VL49" nominalV="138.0" topologyKind="BUS_BREAKER">
            <iidm:busBreakerTopology>
                <iidm:bus id="B49" v="141.45" angle="20.94"/>
            </iidm:busBreakerTopology>
            <iidm:generator id="G49-0" energySource="OTHER" minP="0.0" maxP="304.0" voltageRegulatorOn="true" targetP="204.0" targetV="1.025" targetQ="0.0" bus="B49" connectableBus="B49">
                <iidm:minMaxReactiveLimits minQ="-85.0" maxQ="210.0"/>
            </iidm:generator>
            <iidm:load id="LB49" loadType="UNDEFINED" p0="87.0" q0="30.0" bus="B49" connectableBus="B49"/>
        </iidm:voltageLevel>
    </iidm:substation>
    <iidm:substation id="S101">
        <iidm:voltageLevel id="VL50" nominalV="138.0" topologyKind="BUS_BREAKER">
            <iidm:busBreakerTopology>
                <iidm:bus id="B50" v="138.13799999999998" angle="18.9"/>
            </iidm:busBreakerTopology>
            <iidm:load id="LB50" loadType="UNDEFINED" p0="17.0" q0="4.0" bus="B50" connectableBus="B50"/>
        </iidm:voltageLevel>
    </iidm:substation>
    <iidm:substation id="S102">
        <iidm:voltageLevel id="VL51" nominalV="138.0" topologyKind="BUS_BREAKER">
            <iidm:busBreakerTopology>
                <iidm:bus id="B51" v="133.446" angle="16.28"/>
            </iidm:busBreakerTopology>
            <iidm:load id="LB51" loadType="UNDEFINED" p0="17.0" q0="8.0" bus="B51" connectableBus="B51"/>
        </iidm:voltageLevel>
    </iidm:substation>
    <iidm:substation id="S103">
        <iidm:voltageLevel id="VL52" nominalV="138.0" topologyKind="BUS_BREAKER">
            <iidm:busBreakerTopology>
                <iidm:bus id="B52" v="132.066" angle="15.32"/>
            </iidm:busBreakerTopology>
            <iidm:load id="LB52" loadType="UNDEFINED" p0="18.0" q0="5.0" bus="B52" connectableBus="B52"/>
        </iidm:voltageLevel>
    </iidm:substation>
    <iidm:substation id="S104">
        <iidm:voltageLevel id="VL53" nominalV="138.0" topologyKind="BUS_BREAKER">
            <iidm:busBreakerTopology>
                <iidm:bus id="B53" v="130.548" angle="14.35"/>
            </iidm:busBreakerTopology>
            <iidm:load id="LB53" loadType="UNDEFINED" p0="23.0" q0="11.0" bus="B53" connectableBus="B53"/>
        </iidm:voltageLevel>
    </iidm:substation>
    <iidm:substation id="S105">
        <iidm:voltageLevel id="VL54" nominalV="138.0" topologyKind="BUS_BREAKER">
            <iidm:busBreakerTopology>
                <iidm:bus id="B54" v="131.79" angle="15.26"/>
            </iidm:busBreakerTopology>
            <iidm:generator id="G54-0" energySource="OTHER" minP="0.0" maxP="148.0" voltageRegulatorOn="true" targetP="48.0" targetV="0.955" targetQ="0.0" bus="B54" connectableBus="B54">
                <iidm:minMaxReactiveLimits minQ="-300.0" maxQ="300.0"/>
            </iidm:generator>
            <iidm:load id="LB54" loadType="UNDEFINED" p0="113.0" q0="32.0" bus="B54" connectableBus="B54"/>
        </iidm:voltageLevel>
    </iidm:substation>
    <iidm:substation id="S106">
        <iidm:voltageLevel id="VL55" nominalV="138.0" topologyKind="BUS_BREAKER">
            <iidm:busBreakerTopology>
                <iidm:bus id="B55" v="131.376" angle="14.97"/>
            </iidm:busBreakerTopology>
            <iidm:generator id="G55-0" energySource="OTHER" minP="0.0" maxP="100.0" voltageRegulatorOn="true" targetP="0.0" targetV="0.952" targetQ="0.0" bus="B55" connectableBus="B55">
                <iidm:minMaxReactiveLimits minQ="-8.0" maxQ="23.0"/>
            </iidm:generator>
            <iidm:load id="LB55" loadType="UNDEFINED" p0="63.0" q0="22.0" bus="B55" connectableBus="B55"/>
        </iidm:voltageLevel>
    </iidm:substation>
    <iidm:substation id="S107">
        <iidm:voltageLevel id="VL56" nominalV="138.0" topologyKind="BUS_BREAKER">
            <iidm:busBreakerTopology>
                <iidm:bus id="B56" v="131.652" angle="15.16"/>
            </iidm:busBreakerTopology>
            <iidm:generator id="G56-0" energySource="OTHER" minP="0.0" maxP="100.0" voltageRegulatorOn="true" targetP="0.0" targetV="0.954" targetQ="0.0" bus="B56" connectableBus="B56">
                <iidm:minMaxReactiveLimits minQ="-8.0" maxQ="15.0"/>
            </iidm:generator>
            <iidm:load id="LB56" loadType="UNDEFINED" p0="84.0" q0="18.0" bus="B56" connectableBus="B56"/>
        </iidm:voltageLevel>
    </iidm:substation>
    <iidm:substation id="S99">
        <iidm:voltageLevel id="VL57" nominalV="138.0" topologyKind="BUS_BREAKER">
            <iidm:busBreakerTopology>
                <iidm:bus id="B57" v="133.998" angle="16.36"/>
            </iidm:busBreakerTopology>
            <iidm:load id="LB57" loadType="UNDEFINED" p0="12.0" q0="3.0" bus="B57" connectableBus="B57"/>
        </iidm:voltageLevel>
    </iidm:substation>
    <iidm:substation id="S100">
        <iidm:voltageLevel id="VL58" nominalV="138.0" topologyKind="BUS_BREAKER">
            <iidm:busBreakerTopology>
                <iidm:bus id="B58" v="132.34199999999998" angle="15.51"/>
            </iidm:busBreakerTopology>
            <iidm:load id="LB58" loadType="UNDEFINED" p0="12.0" q0="3.0" bus="B58" connectableBus="B58"/>
        </iidm:voltageLevel>
    </iidm:substation>
    <iidm:substation id="S96">
        <iidm:voltageLevel id="VL59" nominalV="138.0" topologyKind="BUS_BREAKER">
            <iidm:busBreakerTopology>
                <iidm:bus id="B59" v="135.93" angle="19.37"/>
            </iidm:busBreakerTopology>
            <iidm:generator id="G59-0" energySource="OTHER" minP="0.0" maxP="255.0" voltageRegulatorOn="true" targetP="155.0" targetV="0.985" targetQ="0.0" bus="B59" connectableBus="B59">
                <iidm:minMaxReactiveLimits minQ="-60.0" maxQ="180.0"/>
            </iidm:generator>
            <iidm:load id="LB59" loadType="UNDEFINED" p0="277.0" q0="113.0" bus="B59" connectableBus="B59"/>
        </iidm:voltageLevel>
        <iidm:voltageLevel id="VL63" nominalV="345.0" topologyKind="BUS_BREAKER">
            <iidm:busBreakerTopology>
                <iidm:bus id="B63" v="334.305" angle="22.75"/>
            </iidm:busBreakerTopology>
        </iidm:voltageLevel>
        <iidm:twoWindingsTransformer id="T63-59-0" r="0.0" x="735.0984000000001" g="0.0" b="0.0" ratedU1="331.2" ratedU2="138.0" bus1="B63" connectableBus1="B63" voltageLevelId1="VL63" bus2="B59" connectableBus2="B59" voltageLevelId2="VL59"/>
    </iidm:substation>
    <iidm:substation id="S93">
        <iidm:voltageLevel id="VL60" nominalV="138.0" topologyKind="BUS_BREAKER">
            <iidm:busBreakerTopology>
                <iidm:bus id="B60" v="137.034" angle="23.15"/>
            </iidm:busBreakerTopology>
            <iidm:load id="LB60" loadType="UNDEFINED" p0="78.0" q0="3.0" bus="B60" connectableBus="B60"/>
        </iidm:voltageLevel>
    </iidm:substation>
    <iidm:substation id="S94">
        <iidm:voltageLevel id="VL61" nominalV="138.0" topologyKind="BUS_BREAKER">
            <iidm:busBreakerTopology>
                <iidm:bus id="B61" v="137.31" angle="24.04"/>
            </iidm:busBreakerTopology>
            <iidm:generator id="G61-0" energySource="OTHER" minP="0.0" maxP="260.0" voltageRegulatorOn="true" targetP="160.0" targetV="0.995" targetQ="0.0" bus="B61" connectableBus="B61">
                <iidm:minMaxReactiveLimits minQ="-100.0" maxQ="300.0"/>
            </iidm:generator>
        </iidm:voltageLevel>
        <iidm:voltageLevel id="VL64" nominalV="345.0" topologyKind="BUS_BREAKER">
            <iidm:busBreakerTopology>
                <iidm:bus id="B64" v="339.48" angle="24.52"/>
            </iidm:busBreakerTopology>
        </iidm:voltageLevel>
        <iidm:twoWindingsTransformer id="T64-61-0" r="0.0" x="510.3792" g="0.0" b="0.0" ratedU1="339.825" ratedU2="138.0" bus1="B64" connectableBus1="B64" voltageLevelId1="VL64" bus2="B61" connectableBus2="B61" voltageLevelId2="VL61"/>
    </iidm:substation>
    <iidm:substation id="S95">
        <iidm:voltageLevel id="VL62" nominalV="138.0" topologyKind="BUS_BREAKER">
            <iidm:busBreakerTopology>
                <iidm:bus id="B62" v="137.724" angle="23.43"/>
            </iidm:busBreakerTopology>
            <iidm:generator id="G62-0" energySource="OTHER" minP="0.0" maxP="100.0" voltageRegulatorOn="true" targetP="0.0" targetV="0.998" targetQ="0.0" bus="B62" connectableBus="B62">
                <iidm:minMaxReactiveLimits minQ="-20.0" maxQ="20.0"/>
            </iidm:generator>
            <iidm:load id="LB62" loadType="UNDEFINED" p0="77.0" q0="14.0" bus="B62" connectableBus="B62"/>
        </iidm:voltageLevel>
    </iidm:substation>
    <iidm:substation id="S97">
        <iidm:voltageLevel id="VL65" nominalV="345.0" topologyKind="BUS_BREAKER">
            <iidm:busBreakerTopology>
                <iidm:bus id="B65" v="346.72499999999997" angle="27.65"/>
            </iidm:busBreakerTopology>
            <iidm:generator id="G65-0" energySource="OTHER" minP="0.0" maxP="491.0" voltageRegulatorOn="true" targetP="391.0" targetV="1.005" targetQ="0.0" bus="B65" connectableBus="B65">
                <iidm:minMaxReactiveLimits minQ="-67.0" maxQ="200.0"/>
            </iidm:generator>
        </iidm:voltageLevel>
        <iidm:voltageLevel id="VL66" nominalV="138.0" topologyKind="BUS_BREAKER">
            <iidm:busBreakerTopology>
                <iidm:bus id="B66" v="144.9" angle="27.48"/>
            </iidm:busBreakerTopology>
            <iidm:generator id="G66-0" energySource="OTHER" minP="0.0" maxP="492.0" voltageRegulatorOn="true" targetP="392.0" targetV="1.05" targetQ="0.0" bus="B66" connectableBus="B66">
                <iidm:minMaxReactiveLimits minQ="-67.0" maxQ="200.0"/>
            </iidm:generator>
            <iidm:load id="LB66" loadType="UNDEFINED" p0="39.0" q0="18.0" bus="B66" connectableBus="B66"/>
        </iidm:voltageLevel>
        <iidm:twoWindingsTransformer id="T65-66-0" r="0.0" x="704.6279999999999" g="0.0" b="0.0" ratedU1="322.57500000000005" ratedU2="138.0" bus1="B65" connectableBus1="B65" voltageLevelId1="VL65" bus2="B66" connectableBus2="B66" voltageLevelId2="VL66"/>
    </iidm:substation>
    <iidm:substation id="S98">
        <iidm:voltageLevel id="VL67" nominalV="138.0" topologyKind="BUS_BREAKER">
            <iidm:busBreakerTopology>
                <iidm:bus id="B67" v="140.76" angle="24.84"/>
            </iidm:busBreakerTopology>
            <iidm:load id="LB67" loadType="UNDEFINED" p0="28.0" q0="7.0" bus="B67" connectableBus="B67"/>
        </iidm:voltageLevel>
    </iidm:substation>
    <iidm:substation id="S69">
        <iidm:voltageLevel id="VL68" nominalV="345.0" topologyKind="BUS_BREAKER">
            <iidm:busBreakerTopology>
                <iidm:bus id="B68" v="346.03499999999997" angle="27.55"/>
            </iidm:busBreakerTopology>
        </iidm:voltageLevel>
        <iidm:voltageLevel id="VL69" nominalV="138.0" topologyKind="BUS_BREAKER">
            <iidm:busBreakerTopology>
                <iidm:bus id="B69" v="142.82999999999998" angle="30.0"/>
            </iidm:busBreakerTopology>
            <iidm:generator id="G69-0" energySource="OTHER" minP="0.0" maxP="805.2" voltageRegulatorOn="true" targetP="516.4" targetV="1.035" targetQ="0.0" bus="B69" connectableBus="B69">
                <iidm:minMaxReactiveLimits minQ="-300.0" maxQ="300.0"/>
            </iidm:generator>
        </iidm:voltageLevel>
        <iidm:voltageLevel id="VL116" nominalV="138.0" topologyKind="BUS_BREAKER">
            <iidm:busBreakerTopology>
                <iidm:bus id="B116" v="138.69" angle="27.12"/>
            </iidm:busBreakerTopology>
            <iidm:generator id="G116-0" energySource="OTHER" minP="0.0" maxP="100.0" voltageRegulatorOn="true" targetP="0.0" targetV="1.005" targetQ="0.0" bus="B116" connectableBus="B116">
                <iidm:minMaxReactiveLimits minQ="-1000.0" maxQ="1000.0"/>
            </iidm:generator>
            <iidm:load id="LB116" loadType="UNDEFINED" p0="184.0" q0="0.0" bus="B116" connectableBus="B116"/>
        </iidm:voltageLevel>
        <iidm:twoWindingsTransformer id="T68-69-0" r="0.0" x="704.6279999999999" g="0.0" b="0.0" ratedU1="322.57500000000005" ratedU2="138.0" bus1="B68" connectableBus1="B68" voltageLevelId1="VL68" bus2="B69" connectableBus2="B69" voltageLevelId2="VL69"/>
        <iidm:twoWindingsTransformer id="T68-116-0" r="6.47496" x="77.12819999999999" g="0.0" b="8.611636210880068E-6" ratedU1="345.0" ratedU2="138.0" bus1="B68" connectableBus1="B68" voltageLevelId1="VL68" bus2="B116" connectableBus2="B116" voltageLevelId2="VL116"/>
    </iidm:substation>
    <iidm:substation id="S9">
        <iidm:voltageLevel id="VL70" nominalV="138.0" topologyKind="BUS_BREAKER">
            <iidm:busBreakerTopology>
                <iidm:bus id="B70" v="135.792" angle="22.58"/>
            </iidm:busBreakerTopology>
            <iidm:generator id="G70-0" energySource="OTHER" minP="0.0" maxP="100.0" voltageRegulatorOn="true" targetP="0.0" targetV="0.984" targetQ="0.0" bus="B70" connectableBus="B70">
                <iidm:minMaxReactiveLimits minQ="-10.0" maxQ="32.0"/>
            </iidm:generator>
            <iidm:load id="LB70" loadType="UNDEFINED" p0="66.0" q0="20.0" bus="B70" connectableBus="B70"/>
        </iidm:voltageLevel>
    </iidm:substation>
    <iidm:substation id="S11">
        <iidm:voltageLevel id="VL71" nominalV="138.0" topologyKind="BUS_BREAKER">
            <iidm:busBreakerTopology>
                <iidm:bus id="B71" v="136.206" angle="22.15"/>
            </iidm:busBreakerTopology>
        </iidm:voltageLevel>
    </iidm:substation>
    <iidm:substation id="S12">
        <iidm:voltageLevel id="VL72" nominalV="138.0" topologyKind="BUS_BREAKER">
            <iidm:busBreakerTopology>
                <iidm:bus id="B72" v="135.24" angle="20.98"/>
            </iidm:busBreakerTopology>
            <iidm:generator id="G72-0" energySource="OTHER" minP="0.0" maxP="100.0" voltageRegulatorOn="true" targetP="0.0" targetV="0.98" targetQ="0.0" bus="B72" connectableBus="B72">
                <iidm:minMaxReactiveLimits minQ="-100.0" maxQ="100.0"/>
            </iidm:generator>
            <iidm:load id="LB72" loadType="UNDEFINED" p0="12.0" q0="0.0" bus="B72" connectableBus="B72"/>
        </iidm:voltageLevel>
    </iidm:substation>
    <iidm:substation id="S14">
        <iidm:voltageLevel id="VL73" nominalV="138.0" topologyKind="BUS_BREAKER">
            <iidm:busBreakerTopology>
                <iidm:bus id="B73" v="136.758" angle="21.94"/>
            </iidm:busBreakerTopology>
            <iidm:generator id="G73-0" energySource="OTHER" minP="0.0" maxP="100.0" voltageRegulatorOn="true" targetP="0.0" targetV="0.991" targetQ="0.0" bus="B73" connectableBus="B73">
                <iidm:minMaxReactiveLimits minQ="-100.0" maxQ="100.0"/>
            </iidm:generator>
            <iidm:load id="LB73" loadType="UNDEFINED" p0="6.0" q0="0.0" bus="B73" connectableBus="B73"/>
        </iidm:voltageLevel>
    </iidm:substation>
    <iidm:substation id="S15">
        <iidm:voltageLevel id="VL74" nominalV="138.0" topologyKind="BUS_BREAKER">
            <iidm:busBreakerTopology>
                <iidm:bus id="B74" v="132.204" angle="21.64"/>
            </iidm:busBreakerTopology>
            <iidm:generator id="G74-0" energySource="OTHER" minP="0.0" maxP="100.0" voltageRegulatorOn="true" targetP="0.0" targetV="0.958" targetQ="0.0" bus="B74" connectableBus="B74">
                <iidm:minMaxReactiveLimits minQ="-6.0" maxQ="9.0"/>
            </iidm:generator>
            <iidm:load id="LB74" loadType="UNDEFINED" p0="68.0" q0="27.0" bus="B74" connectableBus="B74"/>
            <iidm:shunt id="B74SHB74" bPerSection="12.0" maximumSectionCount="1" currentSectionCount="1" bus="B74" connectableBus="B74"/>
        </iidm:voltageLevel>
    </iidm:substation>
    <iidm:substation id="S17">
        <iidm:voltageLevel id="VL75" nominalV="138.0" topologyKind="BUS_BREAKER">
            <iidm:busBreakerTopology>
                <iidm:bus id="B75" v="133.446" angle="22.91"/>
            </iidm:busBreakerTopology>
            <iidm:load id="LB75" loadType="UNDEFINED" p0="47.0" q0="11.0" bus="B75" connectableBus="B75"/>
        </iidm:voltageLevel>
    </iidm:substation>
    <iidm:substation id="S19">
        <iidm:voltageLevel id="VL76" nominalV="138.0" topologyKind="BUS_BREAKER">
            <iidm:busBreakerTopology>
                <iidm:bus id="B76" v="130.134" angle="21.77"/>
            </iidm:busBreakerTopology>
            <iidm:generator id="G76-0" energySource="OTHER" minP="0.0" maxP="100.0" voltageRegulatorOn="true" targetP="0.0" targetV="0.943" targetQ="0.0" bus="B76" connectableBus="B76">
                <iidm:minMaxReactiveLimits minQ="-8.0" maxQ="23.0"/>
            </iidm:generator>
            <iidm:load id="LB76" loadType="UNDEFINED" p0="68.0" q0="36.0" bus="B76" connectableBus="B76"/>
        </iidm:voltageLevel>
    </iidm:substation>
    <iidm:substation id="S21">
        <iidm:voltageLevel id="VL77" nominalV="138.0" topologyKind="BUS_BREAKER">
            <iidm:busBreakerTopology>
                <iidm:bus id="B77" v="138.828" angle="26.72"/>
            </iidm:busBreakerTopology>
            <iidm:generator id="G77-0" energySource="OTHER" minP="0.0" maxP="100.0" voltageRegulatorOn="true" targetP="0.0" targetV="1.006" targetQ="0.0" bus="B77" connectableBus="B77">
                <iidm:minMaxReactiveLimits minQ="-20.0" maxQ="70.0"/>
            </iidm:generator>
            <iidm:load id="LB77" loadType="UNDEFINED" p0="61.0" q0="28.0" bus="B77" connectableBus="B77"/>
        </iidm:voltageLevel>
    </iidm:substation>
    <iidm:substation id="S23">
        <iidm:voltageLevel id="VL78" nominalV="138.0" topologyKind="BUS_BREAKER">
            <iidm:busBreakerTopology>
                <iidm:bus id="B78" v="138.414" angle="26.42"/>
            </iidm:busBreakerTopology>
            <iidm:load id="LB78" loadType="UNDEFINED" p0="71.0" q0="26.0" bus="B78" connectableBus="B78"/>
        </iidm:voltageLevel>
    </iidm:substation>
    <iidm:substation id="S10">
        <iidm:voltageLevel id="VL79" nominalV="138.0" topologyKind="BUS_BREAKER">
            <iidm:busBreakerTopology>
                <iidm:bus id="B79" v="139.242" angle="26.72"/>
            </iidm:busBreakerTopology>
            <iidm:load id="LB79" loadType="UNDEFINED" p0="39.0" q0="32.0" bus="B79" connectableBus="B79"/>
            <iidm:shunt id="B79SHB79" bPerSection="20.0" maximumSectionCount="1" currentSectionCount="1" bus="B79" connectableBus="B79"/>
        </iidm:voltageLevel>
    </iidm:substation>
    <iidm:substation id="S1">
        <iidm:voltageLevel id="VL80" nominalV="138.0" topologyKind="BUS_BREAKER">
            <iidm:busBreakerTopology>
                <iidm:bus id="B80" v="143.52" angle="28.96"/>
            </iidm:busBreakerTopology>
            <iidm:generator id="G80-0" energySource="OTHER" minP="0.0" maxP="577.0" voltageRegulatorOn="true" targetP="477.0" targetV="1.04" targetQ="0.0" bus="B80" connectableBus="B80">
                <iidm:minMaxReactiveLimits minQ="-165.0" maxQ="280.0"/>
            </iidm:generator>
            <iidm:load id="LB80" loadType="UNDEFINED" p0="130.0" q0="26.0" bus="B80" connectableBus="B80"/>
        </iidm:voltageLevel>
        <iidm:voltageLevel id="VL81" nominalV="345.0" topologyKind="BUS_BREAKER">
            <iidm:busBreakerTopology>
                <iidm:bus id="B81" v="343.965" angle="28.1"/>
            </iidm:busBreakerTopology>
        </iidm:voltageLevel>
        <iidm:twoWindingsTransformer id="T81-80-0" r="0.0" x="704.6279999999999" g="0.0" b="0.0" ratedU1="322.57500000000005" ratedU2="138.0" bus1="B81" connectableBus1="B81" voltageLevelId1="VL81" bus2="B80" connectableBus2="B80" voltageLevelId2="VL80"/>
    </iidm:substation>
    <iidm:substation id="S2">
        <iidm:voltageLevel id="VL82" nominalV="138.0" topologyKind="BUS_BREAKER">
            <iidm:busBreakerTopology>
                <iidm:bus id="B82" v="136.482" angle="27.24"/>
            </iidm:busBreakerTopology>
            <iidm:load id="LB82" loadType="UNDEFINED" p0="54.0" q0="27.0" bus="B82" connectableBus="B82"/>
            <iidm:shunt id="B82SHB82" bPerSection="20.0" maximumSectionCount="1" currentSectionCount="1" bus="B82" connectableBus="B82"/>
        </iidm:voltageLevel>
    </iidm:substation>
    <iidm:substation id="S3">
        <iidm:voltageLevel id="VL83" nominalV="138.0" topologyKind="BUS_BREAKER">
            <iidm:busBreakerTopology>
                <iidm:bus id="B83" v="135.93" angle="28.42"/>
            </iidm:busBreakerTopology>
            <iidm:load id="LB83" loadType="UNDEFINED" p0="20.0" q0="10.0" bus="B83" connectableBus="B83"/>
            <iidm:shunt id="B83SHB83" bPerSection="10.0" maximumSectionCount="1" currentSectionCount="1" bus="B83" connectableBus="B83"/>
        </iidm:voltageLevel>
    </iidm:substation>
    <iidm:substation id="S4">
        <iidm:voltageLevel id="VL84" nominalV="138.0" topologyKind="BUS_BREAKER">
            <iidm:busBreakerTopology>
                <iidm:bus id="B84" v="135.24" angle="30.95"/>
            </iidm:busBreakerTopology>
            <iidm:load id="LB84" loadType="UNDEFINED" p0="11.0" q0="7.0" bus="B84" connectableBus="B84"/>
        </iidm:voltageLevel>
    </iidm:substation>
    <iidm:substation id="S5">
        <iidm:voltageLevel id="VL85" nominalV="138.0" topologyKind="BUS_BREAKER">
            <iidm:busBreakerTopology>
                <iidm:bus id="B85" v="135.93" angle="32.51"/>
            </iidm:busBreakerTopology>
            <iidm:generator id="G85-0" energySource="OTHER" minP="0.0" maxP="100.0" voltageRegulatorOn="true" targetP="0.0" targetV="0.985" targetQ="0.0" bus="B85" connectableBus="B85">
                <iidm:minMaxReactiveLimits minQ="-8.0" maxQ="23.0"/>
            </iidm:generator>
            <iidm:load id="LB85" loadType="UNDEFINED" p0="24.0" q0="15.0" bus="B85" connectableBus="B85"/>
        </iidm:voltageLevel>
    </iidm:substation>
    <iidm:substation id="S6">
        <iidm:voltageLevel id="VL86" nominalV="138.0" topologyKind="BUS_BREAKER">
            <iidm:busBreakerTopology>
                <iidm:bus id="B86" v="136.206" angle="31.14"/>
            </iidm:busBreakerTopology>
            <iidm:load id="LB86" loadType="UNDEFINED" p0="21.0" q0="10.0" bus="B86" connectableBus="B86"/>
        </iidm:voltageLevel>
        <iidm:voltageLevel id="VL87" nominalV="161.0" topologyKind="BUS_BREAKER">
            <iidm:busBreakerTopology>
                <iidm:bus id="B87" v="163.415" angle="31.4"/>
            </iidm:busBreakerTopology>
            <iidm:generator id="G87-0" energySource="OTHER" minP="0.0" maxP="104.0" voltageRegulatorOn="true" targetP="4.0" targetV="1.015" targetQ="0.0" bus="B87" connectableBus="B87">
                <iidm:minMaxReactiveLimits minQ="-100.0" maxQ="1000.0"/>
            </iidm:generator>
        </iidm:voltageLevel>
        <iidm:twoWindingsTransformer id="T86-87-0" r="733.04588" x="5376.0154" g="0.0" b="1.7167547548319894E-6" ratedU1="138.0" ratedU2="161.0" bus1="B86" connectableBus1="B86" voltageLevelId1="VL86" bus2="B87" connectableBus2="B87" voltageLevelId2="VL87"/>
    </iidm:substation>
    <iidm:substation id="S7">
        <iidm:voltageLevel id="VL88" nominalV="138.0" topologyKind="BUS_BREAKER">
            <iidm:busBreakerTopology>
                <iidm:bus id="B88" v="136.206" angle="35.64"/>
            </iidm:busBreakerTopology>
            <iidm:load id="LB88" loadType="UNDEFINED" p0="48.0" q0="10.0" bus="B88" connectableBus="B88"/>
        </iidm:voltageLevel>
    </iidm:substation>
    <iidm:substation id="S8">
        <iidm:voltageLevel id="VL89" nominalV="138.0" topologyKind="BUS_BREAKER">
            <iidm:busBreakerTopology>
                <iidm:bus id="B89" v="138.69" angle="39.69"/>
            </iidm:busBreakerTopology>
            <iidm:generator id="G89-0" energySource="OTHER" minP="0.0" maxP="707.0" voltageRegulatorOn="true" targetP="607.0" targetV="1.005" targetQ="0.0" bus="B89" connectableBus="B89">
                <iidm:minMaxReactiveLimits minQ="-210.0" maxQ="300.0"/>
            </iidm:generator>
        </iidm:voltageLevel>
    </iidm:substation>
    <iidm:substation id="S47">
        <iidm:voltageLevel id="VL90" nominalV="138.0" topologyKind="BUS_BREAKER">
            <iidm:busBreakerTopology>
                <iidm:bus id="B90" v="135.93" angle="33.29"/>
            </iidm:busBreakerTopology>
            <iidm:generator id="G90-0" energySource="OTHER" minP="0.0" maxP="100.0" voltageRegulatorOn="true" targetP="0.0" targetV="0.985" targetQ="0.0" bus="B90" connectableBus="B90">
                <iidm:minMaxReactiveLimits minQ="-300.0" maxQ="300.0"/>
            </iidm:generator>
            <iidm:load id="LB90" loadType="UNDEFINED" p0="163.0" q0="42.0" bus="B90" connectableBus="B90"/>
        </iidm:voltageLevel>
    </iidm:substation>
    <iidm:substation id="S48">
        <iidm:voltageLevel id="VL91" nominalV="138.0" topologyKind="BUS_BREAKER">
            <iidm:busBreakerTopology>
                <iidm:bus id="B91" v="135.24" angle="33.31"/>
            </iidm:busBreakerTopology>
            <iidm:generator id="G91-0" energySource="OTHER" minP="0.0" maxP="100.0" voltageRegulatorOn="true" targetP="0.0" targetV="0.98" targetQ="0.0" bus="B91" connectableBus="B91">
                <iidm:minMaxReactiveLimits minQ="-100.0" maxQ="100.0"/>
            </iidm:generator>
            <iidm:load id="LB91" loadType="UNDEFINED" p0="10.0" q0="0.0" bus="B91" connectableBus="B91"/>
        </iidm:voltageLevel>
    </iidm:substation>
    <iidm:substation id="S49">
        <iidm:voltageLevel id="VL92" nominalV="138.0" topologyKind="BUS_BREAKER">
            <iidm:busBreakerTopology>
                <iidm:bus id="B92" v="137.034" angle="33.8"/>
            </iidm:busBreakerTopology>
            <iidm:generator id="G92-0" energySource="OTHER" minP="0.0" maxP="100.0" voltageRegulatorOn="true" targetP="0.0" targetV="0.99" targetQ="0.0" bus="B92" connectableBus="B92">
                <iidm:minMaxReactiveLimits minQ="-3.0" maxQ="9.0"/>
            </iidm:generator>
            <iidm:load id="LB92" loadType="UNDEFINED" p0="65.0" q0="10.0" bus="B92" connectableBus="B92"/>
        </iidm:voltageLevel>
    </iidm:substation>
    <iidm:substation id="S57">
        <iidm:voltageLevel id="VL93" nominalV="138.0" topologyKind="BUS_BREAKER">
            <iidm:busBreakerTopology>
                <iidm:bus id="B93" v="136.206" angle="30.79"/>
            </iidm:busBreakerTopology>
            <iidm:load id="LB93" loadType="UNDEFINED" p0="12.0" q0="7.0" bus="B93" connectableBus="B93"/>
        </iidm:voltageLevel>
    </iidm:substation>
    <iidm:substation id="S58">
        <iidm:voltageLevel id="VL94" nominalV="138.0" topologyKind="BUS_BREAKER">
            <iidm:busBreakerTopology>
                <iidm:bus id="B94" v="136.758" angle="28.64"/>
            </iidm:busBreakerTopology>
            <iidm:load id="LB94" loadType="UNDEFINED" p0="30.0" q0="16.0" bus="B94" connectableBus="B94"/>
        </iidm:voltageLevel>
    </iidm:substation>
    <iidm:substation id="S59">
        <iidm:voltageLevel id="VL95" nominalV="138.0" topologyKind="BUS_BREAKER">
            <iidm:busBreakerTopology>
                <iidm:bus id="B95" v="135.378" angle="27.67"/>
            </iidm:busBreakerTopology>
            <iidm:load id="LB95" loadType="UNDEFINED" p0="42.0" q0="31.0" bus="B95" connectableBus="B95"/>
        </iidm:voltageLevel>
    </iidm:substation>
    <iidm:substation id="S60">
        <iidm:voltageLevel id="VL96" nominalV="138.0" topologyKind="BUS_BREAKER">
            <iidm:busBreakerTopology>
                <iidm:bus id="B96" v="137.034" angle="27.51"/>
            </iidm:busBreakerTopology>
            <iidm:load id="LB96" loadType="UNDEFINED" p0="38.0" q0="15.0" bus="B96" connectableBus="B96"/>
        </iidm:voltageLevel>
    </iidm:substation>
    <iidm:substation id="S61">
        <iidm:voltageLevel id="VL97" nominalV="138.0" topologyKind="BUS_BREAKER">
            <iidm:busBreakerTopology>
                <iidm:bus id="B97" v="139.51799999999997" angle="27.88"/>
            </iidm:busBreakerTopology>
            <iidm:load id="LB97" loadType="UNDEFINED" p0="15.0" q0="9.0" bus="B97" connectableBus="B97"/>
        </iidm:voltageLevel>
    </iidm:substation>
    <iidm:substation id="S63">
        <iidm:voltageLevel id="VL98" nominalV="138.0" topologyKind="BUS_BREAKER">
            <iidm:busBreakerTopology>
                <iidm:bus id="B98" v="141.312" angle="27.4"/>
            </iidm:busBreakerTopology>
            <iidm:load id="LB98" loadType="UNDEFINED" p0="34.0" q0="8.0" bus="B98" connectableBus="B98"/>
        </iidm:voltageLevel>
    </iidm:substation>
    <iidm:substation id="S66">
        <iidm:voltageLevel id="VL99" nominalV="138.0" topologyKind="BUS_BREAKER">
            <iidm:busBreakerTopology>
                <iidm:bus id="B99" v="139.38" angle="27.04"/>
            </iidm:busBreakerTopology>
            <iidm:generator id="G99-0" energySource="OTHER" minP="0.0" maxP="100.0" voltageRegulatorOn="true" targetP="0.0" targetV="1.01" targetQ="0.0" bus="B99" connectableBus="B99">
                <iidm:minMaxReactiveLimits minQ="-100.0" maxQ="100.0"/>
            </iidm:generator>
            <iidm:load id="LB99" loadType="UNDEFINED" p0="42.0" q0="0.0" bus="B99" connectableBus="B99"/>
        </iidm:voltageLevel>
    </iidm:substation>
    <iidm:substation id="S84">
        <iidm:voltageLevel id="VL100" nominalV="138.0" topologyKind="BUS_BREAKER">
            <iidm:busBreakerTopology>
                <iidm:bus id="B100" v="140.34599999999998" angle="28.03"/>
            </iidm:busBreakerTopology>
            <iidm:generator id="G100-0" energySource="OTHER" minP="0.0" maxP="352.0" voltageRegulatorOn="true" targetP="252.0" targetV="1.017" targetQ="0.0" bus="B100" connectableBus="B100">
                <iidm:minMaxReactiveLimits minQ="-50.0" maxQ="155.0"/>
            </iidm:generator>
            <iidm:load id="LB100" loadType="UNDEFINED" p0="37.0" q0="18.0" bus="B100" connectableBus="B100"/>
        </iidm:voltageLevel>
    </iidm:substation>
    <iidm:substation id="S83">
        <iidm:voltageLevel id="VL101" nominalV="138.0" topologyKind="BUS_BREAKER">
            <iidm:busBreakerTopology>
                <iidm:bus id="B101" v="137.034" angle="29.61"/>
            </iidm:busBreakerTopology>
            <iidm:load id="LB101" loadType="UNDEFINED" p0="22.0" q0="15.0" bus="B101" connectableBus="B101"/>
        </iidm:voltageLevel>
    </iidm:substation>
    <iidm:substation id="S82">
        <iidm:voltageLevel id="VL102" nominalV="138.0" topologyKind="BUS_BREAKER">
            <iidm:busBreakerTopology>
                <iidm:bus id="B102" v="136.758" angle="32.3"/>
            </iidm:busBreakerTopology>
            <iidm:load id="LB102" loadType="UNDEFINED" p0="5.0" q0="3.0" bus="B102" connectableBus="B102"/>
        </iidm:voltageLevel>
    </iidm:substation>
    <iidm:substation id="S81">
        <iidm:voltageLevel id="VL103" nominalV="138.0" topologyKind="BUS_BREAKER">
            <iidm:busBreakerTopology>
                <iidm:bus id="B103" v="138.13799999999998" angle="24.44"/>
            </iidm:busBreakerTopology>
            <iidm:generator id="G103-0" energySource="OTHER" minP="0.0" maxP="140.0" voltageRegulatorOn="true" targetP="40.0" targetV="1.01" targetQ="0.0" bus="B103" connectableBus="B103">
                <iidm:minMaxReactiveLimits minQ="-15.0" maxQ="40.0"/>
            </iidm:generator>
            <iidm:load id="LB103" loadType="UNDEFINED" p0="23.0" q0="16.0" bus="B103" connectableBus="B103"/>
        </iidm:voltageLevel>
    </iidm:substation>
    <iidm:substation id="S80">
        <iidm:voltageLevel id="VL104" nominalV="138.0" topologyKind="BUS_BREAKER">
            <iidm:busBreakerTopology>
                <iidm:bus id="B104" v="133.998" angle="21.69"/>
            </iidm:busBreakerTopology>
            <iidm:generator id="G104-0" energySource="OTHER" minP="0.0" maxP="100.0" voltageRegulatorOn="true" targetP="0.0" targetV="0.971" targetQ="0.0" bus="B104" connectableBus="B104">
                <iidm:minMaxReactiveLimits minQ="-8.0" maxQ="23.0"/>
            </iidm:generator>
            <iidm:load id="LB104" loadType="UNDEFINED" p0="38.0" q0="25.0" bus="B104" connectableBus="B104"/>
        </iidm:voltageLevel>
    </iidm:substation>
    <iidm:substation id="S46">
        <iidm:voltageLevel id="VL105" nominalV="138.0" topologyKind="BUS_BREAKER">
            <iidm:busBreakerTopology>
                <iidm:bus id="B105" v="133.17" angle="20.57"/>
            </iidm:busBreakerTopology>
            <iidm:generator id="G105-0" energySource="OTHER" minP="0.0" maxP="100.0" voltageRegulatorOn="true" targetP="0.0" targetV="0.965" targetQ="0.0" bus="B105" connectableBus="B105">
                <iidm:minMaxReactiveLimits minQ="-8.0" maxQ="23.0"/>
            </iidm:generator>
            <iidm:load id="LB105" loadType="UNDEFINED" p0="31.0" q0="26.0" bus="B105" connectableBus="B105"/>
            <iidm:shunt id="B105SHB105" bPerSection="20.0" maximumSectionCount="1" currentSectionCount="1" bus="B105" connectableBus="B105"/>
        </iidm:voltageLevel>
    </iidm:substation>
    <iidm:substation id="S44">
...